@<TRIPOS>MOLECULE
*****
 11 10 0 0 0
SMALL
GASTEIGER

@<TRIPOS>ATOM
      1 C          -4.8968    0.9659    0.0080 C.3     1  UNL1       -0.0655
      2 C          -3.6147    0.1681    0.1762 C.3     1  UNL1       -0.0588
      3 H          -4.8923    1.8587    0.6409 H       1  UNL1        0.0230
      4 H          -5.7622    0.3560    0.2853 H       1  UNL1        0.0230
      5 H          -5.0250    1.2830   -1.0323 H       1  UNL1        0.0230
      6 C          -2.3859    1.0136   -0.1131 C.3     1  UNL1       -0.0655
      7 H          -3.6323   -0.6957   -0.4968 H       1  UNL1        0.0260
      8 H          -3.5564   -0.2179    1.2003 H       1  UNL1        0.0260
      9 H          -2.4181    1.4207   -1.1290 H       1  UNL1        0.0230
     10 H          -1.4785    0.4093   -0.0169 H       1  UNL1        0.0230
     11 H          -2.3125    1.8495    0.5897 H       1  UNL1        0.0230
@<TRIPOS>BOND
     1     1     2    1
     2     1     3    1
     3     1     4    1
     4     1     5    1
     5     2     6    1
     6     2     7    1
     7     2     8    1
     8     6     9    1
     9     6    10    1
    10     6    11    1
